 **********************************************
 **** Specfem 3-D Solver - MPI version f90 ****
 **********************************************

 Running Git package version of the code: v4.1.0-1-gbf45798f
 which is Git bf45798f3af9d792326a829de920fd944cf7c7dd
 dating 2023-12-20 23:03:42 +0100




 There are          100  MPI processes
 Processes are numbered from 0 to           99

 There is a total of          100  slices

  NDIM =            3

  NGLLX =            5
  NGLLY =            5
  NGLLZ =            5

 using single precision for the calculations

 smallest and largest possible floating-point numbers are:    1.17549435E-38   3.40282347E+38

 velocity model:   tomo

 Reading mesh databases...
   reads binary mesh files: proc***_external_mesh.bin
   from directory         : ./OUTPUT_FILES/DATABASES_MPI

   simulation w/ acoustic    domain:  F
   simulation w/ elastic     domain:  T
   simulation w/ poroelastic domain:  F

   slice 0 has:
   number of elements acoustic   :           0
   number of elements elastic    :      190696
   number of elements poroelastic:           0
   done

   total acoustic elements    :           0
   total elastic elements     :    19069600
   total poroelastic elements :           0

 Mesh resolution:

 ********
 minimum and maximum number of elements
 and points in the CUBIT + SCOTCH mesh:

 NSPEC_global_min =       190696
 NSPEC_global_max =       190696
 NSPEC_global_max / NSPEC_global_min imbalance =    1.00000000      =    0.00000000      %
 NSPEC_global_sum =     19069600

 NGLOB_global_min =     12358289
 NGLOB_global_max =     12358289
 NGLOB_global_max / NGLOB_global_min imbalance =    1.00000000      =    0.00000000      %
 NGLOB_global_sum =   1235828900

 If you have elements of a single type (all acoustic, all elastic, all poroelastic, and without CPML)
 in the whole mesh, then there should be no significant imbalance in the above numbers.
 Otherwise, it is normal to have imbalance in elements and points because the domain decomposer
 compensates for the different cost of different elements by partitioning them unevenly among processes.
 ********


 ********
 Model: P   velocity min,max =    1220.51050       8129.29492    
 Model: S   velocity min,max =    411.735291       4672.51172    

 Model: Poisson's ratio min,max =   0.188040540      0.449340582    
 ********

 *********************************************
 *** Verification of simulation parameters ***
 *********************************************

 *** Xmin and Xmax of the model =    548464.062       918153.312    
 *** Ymin and Ymax of the model =    3263487.50       3715793.75    
 *** Zmin and Zmax of the model =   -50000.0000       6411.80615    

 *** Max GLL point distance =    944.214844    
 *** Min GLL point distance =    72.5000000    
 *** Max/min ratio =    13.0236530    

 *** Max element size =    2884.61719    
 *** Min element size =    420.062500    
 *** Max/min ratio =    6.86711407    

 *** Minimum period resolved =    1.56046879    
 *** Maximum suggested time step =    5.15000010E-03

 *** for DT :    4.4999999999999997E-003
 *** Max stability for wave velocities =   0.436595857    

 Elapsed time for checking mesh resolution in seconds =   0.51203624599999997     

 ******************************************
 There is a total of          100  slices
 ******************************************


 kd-tree:
   total data points:       190696
   theoretical   number of nodes:       381383
                tree memory size:    11.6388855     MB
   actual        number of nodes:       381391
                tree memory size:    11.6391296     MB
   maximum depth   :           21
   creation timing :    7.93743134E-02 (s)


 sources:         7973

 ********************
  locating sources
 ********************

 reading source information from ./DATA/CMTSOLUTION file

 UTM projection:
   UTM zone:           43

   located source          500 out of        7973  - elapsed time:   0.559494495     s
   located source         1000 out of        7973  - elapsed time:   0.979318619     s
   located source         1500 out of        7973  - elapsed time:    1.29787064     s
   located source         2000 out of        7973  - elapsed time:    1.61226392     s
   located source         2500 out of        7973  - elapsed time:    1.95193970     s
   located source         3000 out of        7973  - elapsed time:    2.22740197     s
   located source         3500 out of        7973  - elapsed time:    2.56481433     s
   located source         4000 out of        7973  - elapsed time:    2.88918257     s
   located source         4500 out of        7973  - elapsed time:    3.28717017     s
   located source         5000 out of        7973  - elapsed time:    3.65171504     s
   located source         5500 out of        7973  - elapsed time:    3.98090744     s
   located source         6000 out of        7973  - elapsed time:    4.35496998     s
   located source         6500 out of        7973  - elapsed time:    4.70528316     s
   located source         7000 out of        7973  - elapsed time:    5.05320883     s
   located source         7500 out of        7973  - elapsed time:    5.40722370     s

 *************************************
  using sources         7973
 *************************************


 maximum error in location of the sources:    115.156151      m


 Elapsed time for detection of sources in seconds =    5.8398259249999995     

 End of source detection - done


 receivers:

 there are          462  stations in file ./DATA/STATIONS
 saving          462  stations inside the model in file ./DATA/STATIONS_FILTERED
 excluding            0  stations located outside the model


 Total number of receivers =          462


 ********************
  locating receivers
 ********************

 reading receiver information from ./DATA/STATIONS_FILTERED file


 station #            1     IN    Una
      original latitude:    31.4563999    
      original longitude:    76.2626038    
      original UTM x:    619962.000    
      original UTM y:    3480874.25    
      original depth:    0.00000000      m
      horizontal distance:    60.7942886    
      target x, y, z:    619962.000       3480874.25       371.727783    
      closest estimate found:    0.00000000      m away

      receiver located in slice           41
                       in element       189195
                       in elastic domain
      at coordinates: 
      xi    =  -0.61583191547206173     
      eta   =   0.88773281446121133     
      gamma =   0.99903939968720790     
      rotation matrix: 
      nu1 =    1.00000000       0.00000000       0.00000000    
      nu2 =    0.00000000       1.00000000       0.00000000    
      nu3 =    0.00000000       0.00000000       1.00000000    
      UTM x:    619962.01180825615     
      UTM y:    3480874.1473333165     
      depth:    0.0000000000000000       m
      z:    371.72778320312500     



 station #            2     IN    Hmp
      original latitude:    31.6854000    
      original longitude:    76.5197983    
      original UTM x:    644048.875    
      original UTM y:    3506569.25    
      original depth:    0.00000000      m
      horizontal distance:    45.1660652    
      target x, y, z:    644048.875       3506569.25       789.921143    
      closest estimate found:    0.00000000      m away

      receiver located in slice           52
                       in element       185820
                       in elastic domain
      at coordinates: 
      xi    =    5.5841626772339482E-002
      eta   =   0.87123794570304303     
      gamma =   0.99825486452938494     
      rotation matrix: 
      nu1 =    1.00000000       0.00000000       0.00000000    
      nu2 =    0.00000000       1.00000000       0.00000000    
      nu3 =    0.00000000       0.00000000       1.00000000    
      UTM x:    644048.85523172386     
      UTM y:    3506569.1581520457     
      depth:    0.0000000000000000       m
      z:    789.92114257812500     



 station #            3     IN    Krt
      original latitude:    32.0872002    
      original longitude:    76.2563019    
      original UTM x:    618556.000    
      original UTM y:    3550791.75    
      original depth:    0.00000000      m
      horizontal distance:    9.81032276    
      target x, y, z:    618556.000       3550791.75       693.394897    
      closest estimate found:    4.79992712E-10  m away

      receiver located in slice           61
                       in element       185671
                       in elastic domain
      at coordinates: 
      xi    =   0.69045828011833765     
      eta   =   0.94936268660513945     
      gamma =    1.0003245998919297     
      rotation matrix: 
      nu1 =    1.00000000       0.00000000       0.00000000    
      nu2 =    0.00000000       1.00000000       0.00000000    
      nu3 =    0.00000000       0.00000000       1.00000000    
      UTM x:    618555.97689246747     
      UTM y:    3550791.7362104580     
      depth:    2.2737367544323206E-013  m
      z:    693.39489746093773     



 station #            4     IN    Drms
      original latitude:    32.2038994    
      original longitude:    76.3246994    
      original UTM x:    624852.125    
      original UTM y:    3563806.00    
      original depth:    0.00000000      m
      horizontal distance:    24.2223434    
      target x, y, z:    624852.125       3563806.00       1227.38977    
      closest estimate found:    2.32830644E-10  m away

      receiver located in slice           62
                       in element       187886
                       in elastic domain
      at coordinates: 
      xi    =   0.66501248139216573     
      eta   =  -0.40979412146261052     
      gamma =    1.0026170232916976     
      rotation matrix: 
      nu1 =    1.00000000       0.00000000       0.00000000    
      nu2 =    0.00000000       1.00000000       0.00000000    
      nu3 =    0.00000000       0.00000000       1.00000000    
      UTM x:    624852.14215273224     
      UTM y:    3563806.1091350489     
      depth:    0.0000000000000000       m
      z:    1227.3897705078125     



 station #            5     IN    Chmb
      original latitude:    32.5545006    
      original longitude:    76.1250992    
      original UTM x:    605630.062    
      original UTM y:    3602458.75    
      original depth:    0.00000000      m
      horizontal distance:    61.7407379    
      target x, y, z:    605630.062       3602458.75       1042.94482    
      closest estimate found:    4.79992712E-10  m away

      receiver located in slice           71
                       in element       186785
                       in elastic domain
      at coordinates: 
      xi    =  -0.84680646740641730     
      eta   =   -6.2329469752363895E-003
      gamma =    1.0013337926816868     
      rotation matrix: 
      nu1 =    1.00000000       0.00000000       0.00000000    
      nu2 =    0.00000000       1.00000000       0.00000000    
      nu3 =    0.00000000       0.00000000       1.00000000    
      UTM x:    605630.05042914255     
      UTM y:    3602458.6481326278     
      depth:    2.2737367544323206E-013  m
      z:    1042.9448242187498     



 station #            6     IN    Mnd
      original latitude:    31.7075996    
      original longitude:    76.9325027    
      original UTM x:    683127.500    
      original UTM y:    3509649.75    
      original depth:    0.00000000      m
      horizontal distance:    74.8292313    
      target x, y, z:    683127.500       3509649.75       913.578369    
      closest estimate found:    0.00000000      m away

      receiver located in slice           53
                       in element       186353
                       in elastic domain
      at coordinates: 
      xi    =    9.9730349342845553E-002
      eta   =   0.85857181016225292     
      gamma =   0.99759283667943299     
      rotation matrix: 
      nu1 =    1.00000000       0.00000000       0.00000000    
      nu2 =    0.00000000       1.00000000       0.00000000    
      nu3 =    0.00000000       0.00000000       1.00000000    
      UTM x:    683127.51210650883     
      UTM y:    3509649.6529552117     
      depth:    0.0000000000000000       m
      z:    913.57836914062500     



 station #            7     IN    Kulu
      original latitude:    31.9412003    
      original longitude:    77.1100998    
      original UTM x:    699457.312    
      original UTM y:    3535861.75    
      original depth:    0.00000000      m
      horizontal distance:    84.2318802    
      target x, y, z:    699457.312       3535861.75       1462.88013    
      closest estimate found:    0.00000000      m away

      receiver located in slice           64
                       in element       183048
                       in elastic domain
      at coordinates: 
      xi    =  -0.15815160426399466     
      eta   =   0.85440672437229170     
      gamma =   0.99915803414523296     
      rotation matrix: 
      nu1 =    1.00000000       0.00000000       0.00000000    
      nu2 =    0.00000000       1.00000000       0.00000000    
      nu3 =    0.00000000       0.00000000       1.00000000    
      UTM x:    699457.31447086693     
      UTM y:    3535861.8325281637     
      depth:    0.0000000000000000       m
      z:    1462.8801269531250     



 station #            8     IN    Mnli
      original latitude:    32.2318993    
      original longitude:    77.1923981    
      original UTM x:    706582.875    
      original UTM y:    3568249.25    
      original depth:    0.00000000      m
      horizontal distance:    95.0123520    
      target x, y, z:    706582.875       3568249.25       2065.58838    
      closest estimate found:    4.79992657E-10  m away

      receiver located in slice           64
                       in element       188609
                       in elastic domain
      at coordinates: 
      xi    =  -0.23497926867330093     
      eta   =   0.87905164465402441     
      gamma =   0.99392885450712332     
      rotation matrix: 
      nu1 =    1.00000000       0.00000000       0.00000000    
      nu2 =    0.00000000       1.00000000       0.00000000    
      nu3 =    0.00000000       0.00000000       1.00000000    
      UTM x:    706582.88966737420     
      UTM y:    3568249.1662726756     
      depth:    0.0000000000000000       m
      z:    2065.5883789062500     



 station #            9     IN    Sudr
      original latitude:    31.5331001    
      original longitude:    76.9060974    
      original UTM x:    680962.938    
      original UTM y:    3490259.75    
      original depth:    0.00000000      m
      horizontal distance:    83.1984940    
      target x, y, z:    680962.938       3490259.75       907.832947    
      closest estimate found:   0.278889805      m away

      receiver located in slice           53
                       in element       183092
                       in elastic domain
      at coordinates: 
      xi    =  -0.20534001394543100     
      eta   =  -0.59075697492067869     
      gamma =    1.0100000000000000     
      rotation matrix: 
      nu1 =    1.00000000       0.00000000       0.00000000    
      nu2 =    0.00000000       1.00000000       0.00000000    
      nu3 =    0.00000000       0.00000000       1.00000000    
      UTM x:    680962.92826332070     
      UTM y:    3490259.8743020669     
      depth:   0.27888979345527787       m
      z:    907.55405698388847     



 station #           10     IN    Blsp
      original latitude:    31.3435001    
      original longitude:    76.7568970    
      original UTM x:    667132.188    
      original UTM y:    3469004.50    
      original depth:    0.00000000      m
      horizontal distance:    89.0509186    
      target x, y, z:    667132.188       3469004.50       591.864380    
      closest estimate found:    4.79992657E-10  m away

      receiver located in slice           43
                       in element       187107
                       in elastic domain
      at coordinates: 
      xi    =   -5.0050529794471783E-002
      eta   =   0.70150834168104415     
      gamma =   0.99171407240468634     
      rotation matrix: 
      nu1 =    1.00000000       0.00000000       0.00000000    
      nu2 =    0.00000000       1.00000000       0.00000000    
      nu3 =    0.00000000       0.00000000       1.00000000    
      UTM x:    667132.20657466399     
      UTM y:    3469004.5376438117     
      depth:    1.1368683772161603E-013  m
      z:    591.86437988281239     



 station #           11     IN    Soln
      original latitude:    30.9200001    
      original longitude:    77.0899963    
      original UTM x:    699711.500    
      original UTM y:    3422608.25    
      original depth:    0.00000000      m
      horizontal distance:    145.742416    
      target x, y, z:    699711.500       3422608.25       1548.18848    
      closest estimate found:    5.20625154E-10  m away

      receiver located in slice           34
                       in element       186921
                       in elastic domain
      at coordinates: 
      xi    =  -0.94793689183445251     
      eta   =   0.16498305111877071     
      gamma =    1.0050592994938077     
      rotation matrix: 
      nu1 =    1.00000000       0.00000000       0.00000000    
      nu2 =    0.00000000       1.00000000       0.00000000    
      nu3 =    0.00000000       0.00000000       1.00000000    
      UTM x:    699711.49900665903     
      UTM y:    3422608.1506441375     
      depth:    0.0000000000000000       m
      z:    1548.1884765625000     



 station #           12     IN    Sml1
      original latitude:    31.1030998    
      original longitude:    77.1484985    
      original UTM x:    704910.375    
      original UTM y:    3443013.25    
      original depth:    0.00000000      m
      horizontal distance:    133.074478    
      target x, y, z:    704910.375       3443013.25       1902.70215    
      closest estimate found:    0.00000000      m away

      receiver located in slice           34
                       in element       190453
                       in elastic domain
      at coordinates: 
      xi    =  -0.19738203679660318     
      eta   =  -0.43453426094837855     
      gamma =   0.99926590023636930     
      rotation matrix: 
      nu1 =    1.00000000       0.00000000       0.00000000    
      nu2 =    0.00000000       1.00000000       0.00000000    
      nu3 =    0.00000000       0.00000000       1.00000000    
      UTM x:    704910.38735408417     
      UTM y:    3443013.3246949366     
      depth:    0.0000000000000000       m
      z:    1902.7021484375000     



 station #           13     IN    Sml2
      original latitude:    31.0953999    
      original longitude:    77.1724014    
      original UTM x:    707207.062    
      original UTM y:    3442204.00    
      original depth:    0.00000000      m
      horizontal distance:    135.222870    
      target x, y, z:    707207.062       3442204.00       2046.84961    
      closest estimate found:    5.20625598E-10  m away

      receiver located in slice           34
                       in element       190282
                       in elastic domain
      at coordinates: 
      xi    =   0.73661180246034752     
      eta   =   0.41673687583420765     
      gamma =    1.0040316091533643     
      rotation matrix: 
      nu1 =    1.00000000       0.00000000       0.00000000    
      nu2 =    0.00000000       1.00000000       0.00000000    
      nu3 =    0.00000000       0.00000000       1.00000000    
      UTM x:    707207.05524763558     
      UTM y:    3442204.1013770895     
      depth:    6.8212102632969618E-013  m
      z:    2046.8496093750007     



 station #           14     IN    Sml3
      original latitude:    31.1177006    
      original longitude:    77.2175980    
      original UTM x:    711469.875    
      original UTM y:    3444761.75    
      original depth:    0.00000000      m
      horizontal distance:    136.325348    
      target x, y, z:    711469.875       3444761.75       2109.07617    
      closest estimate found:   0.659745157      m away

      receiver located in slice           44
                       in element       182989
                       in elastic domain
      at coordinates: 
      xi    =  -0.96949088023891805     
      eta   =   0.36877498890193600     
      gamma =    1.0100000000000000     
      rotation matrix: 
      nu1 =    1.00000000       0.00000000       0.00000000    
      nu2 =    0.00000000       1.00000000       0.00000000    
      nu3 =    0.00000000       0.00000000       1.00000000    
      UTM x:    711469.84536855982     
      UTM y:    3444761.7751721479     
      depth:   0.65974513001719970       m
      z:    2108.4164267449828     



 station #           15     IN    Rmp
      original latitude:    31.4375000    
      original longitude:    77.6275024    
      original UTM x:    749724.812    
      original UTM y:    3481077.25    
      original depth:    0.00000000      m
      horizontal distance:    147.275238    
      target x, y, z:    749724.812       3481077.25       1258.28955    
      closest estimate found:    0.00000000      m away

      receiver located in slice           45
                       in element       189240
                       in elastic domain
      at coordinates: 
      xi    =  -0.84687840601230391     
      eta   =  -0.32150868596762816     
      gamma =    1.0017055698937170     
      rotation matrix: 
      nu1 =    1.00000000       0.00000000       0.00000000    
      nu2 =    0.00000000       1.00000000       0.00000000    
      nu3 =    0.00000000       0.00000000       1.00000000    
      UTM x:    749724.79010483716     
      UTM y:    3481077.3722677073     
      depth:    0.0000000000000000       m
      z:    1258.2895507812500     



 station #           16     IN    Peo
      original latitude:    31.5389004    
      original longitude:    78.2722015    
      original UTM x:    810690.562    
      original UTM y:    3493972.00    
      original depth:    0.00000000      m
      horizontal distance:    200.976593    
      target x, y, z:    810690.562       3493972.00       2301.23315    
      closest estimate found:    1.33131683      m away

      receiver located in slice           57
                       in element       183665
                       in elastic domain
      at coordinates: 
      xi    =  -0.60397407816618842     
      eta   =  -0.14632331890304096     
      gamma =    1.0100000000000000     
      rotation matrix: 
      nu1 =    1.00000000       0.00000000       0.00000000    
      nu2 =    0.00000000       1.00000000       0.00000000    
      nu3 =    0.00000000       0.00000000       1.00000000    
      UTM x:    810690.55281939521     
      UTM y:    3493971.8949070415     
      depth:    1.3313168551294439       m
      z:    2299.9018374417456     



 station #           17     IN    Klp
      original latitude:    31.5410995    
      original longitude:    78.2552032    
      original UTM x:    809068.375    
      original UTM y:    3494167.75    
      original depth:    0.00000000      m
      horizontal distance:    199.354202    
      target x, y, z:    809068.375       3494167.75       2801.26538    
      closest estimate found:   0.872316122      m away

      receiver located in slice           57
                       in element       183661
                       in elastic domain
      at coordinates: 
      xi    =  -0.32669198521400750     
      eta   =   0.61571928657957209     
      gamma =    1.0100000000000000     
      rotation matrix: 
      nu1 =    1.00000000       0.00000000       0.00000000    
      nu2 =    0.00000000       1.00000000       0.00000000    
      nu3 =    0.00000000       0.00000000       1.00000000    
      UTM x:    809068.37426485587     
      UTM y:    3494167.7398566501     
      depth:   0.87231615150130892       m
      z:    2800.3930647078737     



 station #           18     IN    Nako
      original latitude:    31.8862000    
      original longitude:    78.6281967    
      original UTM x:    843227.562    
      original UTM y:    3533567.25    
      original depth:    0.00000000      m
      horizontal distance:    227.951385    
      target x, y, z:    843227.562       3533567.25       3565.58936    
      closest estimate found:    5.20625931E-10  m away

      receiver located in slice           57
                       in element       190518
                       in elastic domain
      at coordinates: 
      xi    =   0.29694661115120341     
      eta   =   -7.4376854931406583E-002
      gamma =    1.0047459847297489     
      rotation matrix: 
      nu1 =    1.00000000       0.00000000       0.00000000    
      nu2 =    0.00000000       1.00000000       0.00000000    
      nu3 =    0.00000000       0.00000000       1.00000000    
      UTM x:    843227.58681792347     
      UTM y:    3533567.1351482831     
      depth:    9.0949470177292824E-013  m
      z:    3565.5893554687509     



 station #           19     IN    Tabo
      original latitude:    32.0908012    
      original longitude:    78.3828964    
      original UTM x:    819299.062    
      original UTM y:    3555511.50    
      original depth:    0.00000000      m
      horizontal distance:    204.365875    
      target x, y, z:    819299.062       3555511.50       3573.52637    
      closest estimate found:    4.79993545E-10  m away

      receiver located in slice           67
                       in element       186501
                       in elastic domain
      at coordinates: 
      xi    =   0.37910454573620656     
      eta   =  -0.68525305410327320     
      gamma =   0.98690397015830666     
      rotation matrix: 
      nu1 =    1.00000000       0.00000000       0.00000000    
      nu2 =    0.00000000       1.00000000       0.00000000    
      nu3 =    0.00000000       0.00000000       1.00000000    
      UTM x:    819299.07314863871     
      UTM y:    3555511.6006217273     
      depth:    9.0949470177292824E-013  m
      z:    3573.5263671874991     



 station #           20     IN    Dnkr
      original latitude:    32.0862999    
      original longitude:    78.2166977    
      original UTM x:    803619.562    
      original UTM y:    3554531.75    
      original depth:    0.00000000      m
      horizontal distance:    188.656128    
      target x, y, z:    803619.562       3554531.75       3939.55420    
      closest estimate found:    0.00000000      m away

      receiver located in slice           66
                       in element       186376
                       in elastic domain
      at coordinates: 
      xi    =  -0.26712429625330697     
      eta   =  -0.49815734517666510     
      gamma =    1.0046685665078927     
      rotation matrix: 
      nu1 =    1.00000000       0.00000000       0.00000000    
      nu2 =    0.00000000       1.00000000       0.00000000    
      nu3 =    0.00000000       0.00000000       1.00000000    
      UTM x:    803619.57470251829     
      UTM y:    3554531.7235622900     
      depth:    0.0000000000000000       m
      z:    3939.5541992187500     



 station #           21     IN    Keyl
      original latitude:    32.5667000    
      original longitude:    77.0167007    
      original UTM x:    689323.750    
      original UTM y:    3605047.00    
      original depth:    0.00000000      m
      horizontal distance:    97.4734116    
      target x, y, z:    689323.750       3605047.00       3341.05811    
      closest estimate found:    1.16418875E-10  m away

      receiver located in slice           73
                       in element       187248
                       in elastic domain
      at coordinates: 
      xi    =  -0.40166436698825203     
      eta   =    6.5261808414764436E-002
      gamma =   0.99005949269538107     
      rotation matrix: 
      nu1 =    1.00000000       0.00000000       0.00000000    
      nu2 =    0.00000000       1.00000000       0.00000000    
      nu3 =    0.00000000       0.00000000       1.00000000    
      UTM x:    689323.73168092093     
      UTM y:    3605046.8891270366     
      depth:    9.0949470177292824E-013  m
      z:    3341.0581054687491     



 station #           22     IN    ST1
      original latitude:    30.7500000    
      original longitude:    76.0000000    
      original UTM x:    595716.562    
      original UTM y:    3402323.25    
      original depth:    0.00000000      m
      horizontal distance:    140.561813    
      target x, y, z:    595716.562       3402323.25       261.775146    
      closest estimate found:    2.32830644E-10  m away

      receiver located in slice           31
                       in element       183505
                       in elastic domain
      at coordinates: 
      xi    =   -4.2501575090828053E-002
      eta   =  -0.76636965133043078     
      gamma =   0.99997343157635910     
      rotation matrix: 
      nu1 =    1.00000000       0.00000000       0.00000000    
      nu2 =    0.00000000       1.00000000       0.00000000    
      nu3 =    0.00000000       0.00000000       1.00000000    
      UTM x:    595716.54209105659     
      UTM y:    3402323.2929996080     
      depth:    5.6843418860808015E-014  m
      z:    261.77514648437494     



 station #           23     IN    ST2
      original latitude:    30.8500004    
      original longitude:    76.0000000    
      original UTM x:    595617.500    
      original UTM y:    3413406.25    
      original depth:    0.00000000      m
      horizontal distance:    129.612595    
      target x, y, z:    595617.500       3413406.25       256.508240    
      closest estimate found:    9.38570333E-10  m away

      receiver located in slice           31
                       in element       185353
                       in elastic domain
      at coordinates: 
      xi    =  -0.51413085844226458     
      eta   =   0.35902989320878625     
      gamma =    1.0001268711930333     
      rotation matrix: 
      nu1 =    1.00000000       0.00000000       0.00000000    
      nu2 =    0.00000000       1.00000000       0.00000000    
      nu3 =    0.00000000       0.00000000       1.00000000    
      UTM x:    595617.48520313762     
      UTM y:    3413406.2706825538     
      depth:    5.6843418860808015E-014  m
      z:    256.50823974609369     



 station #           24     IN    ST3
      original latitude:    30.9500008    
      original longitude:    76.0000000    
      original UTM x:    595518.125    
      original UTM y:    3424489.50    
      original depth:    0.00000000      m
      horizontal distance:    118.688187    
      target x, y, z:    595518.125       3424489.50       244.211639    
      closest estimate found:    4.79992657E-10  m away

      receiver located in slice           31
                       in element       187289
                       in elastic domain
      at coordinates: 
      xi    =  -0.98714735423582090     
      eta   =  -0.51468817001450806     
      gamma =    1.0001152776523337     
      rotation matrix: 
      nu1 =    1.00000000       0.00000000       0.00000000    
      nu2 =    0.00000000       1.00000000       0.00000000    
      nu3 =    0.00000000       0.00000000       1.00000000    
      UTM x:    595518.13695725566     
      UTM y:    3424489.4144763276     
      depth:    2.8421709430404007E-014  m
      z:    244.21163940429690     



 station #           25     IN    ST4
      original latitude:    31.0499992    
      original longitude:    76.0000000    
      original UTM x:    595418.500    
      original UTM y:    3435572.75    
      original depth:    0.00000000      m
      horizontal distance:    107.796165    
      target x, y, z:    595418.500       3435572.75       247.884583    
      closest estimate found:    0.00000000      m away

      receiver located in slice           31
                       in element       189136
                       in elastic domain
      at coordinates: 
      xi    =   0.53851898612854254     
      eta   =   0.61274200951974878     
      gamma =    1.0005808026914798     
      rotation matrix: 
      nu1 =    1.00000000       0.00000000       0.00000000    
      nu2 =    0.00000000       1.00000000       0.00000000    
      nu3 =    0.00000000       0.00000000       1.00000000    
      UTM x:    595418.49764452374     
      UTM y:    3435572.7246964467     
      depth:    0.0000000000000000       m
      z:    247.88458251953125     



 station #           26     IN    ST5
      original latitude:    31.1499996    
      original longitude:    76.0000000    
      original UTM x:    595318.562    
      original UTM y:    3446656.25    
      original depth:    0.00000000      m
      horizontal distance:    96.9475098    
      target x, y, z:    595318.562       3446656.25       250.042694    
      closest estimate found:    1.16415322E-10  m away

      receiver located in slice           41
                       in element       183328
                       in elastic domain
      at coordinates: 
      xi    =    6.2803008366676530E-002
      eta   =  -0.25991573374073385     
      gamma =    1.0001035027467764     
      rotation matrix: 
      nu1 =    1.00000000       0.00000000       0.00000000    
      nu2 =    0.00000000       1.00000000       0.00000000    
      nu3 =    0.00000000       0.00000000       1.00000000    
      UTM x:    595318.56755694514     
      UTM y:    3446656.2016564291     
      depth:    0.0000000000000000       m
      z:    250.04269409179688     



 station #           27     IN    ST6
      original latitude:    31.2500000    
      original longitude:    76.0000000    
      original UTM x:    595218.375    
      original UTM y:    3457739.75    
      original depth:    0.00000000      m
      horizontal distance:    86.1586761    
      target x, y, z:    595218.375       3457739.75       250.221497    
      closest estimate found:    4.65661287E-10  m away

      receiver located in slice           41
                       in element       185176
                       in elastic domain
      at coordinates: 
      xi    =  -0.41429580524687126     
      eta   =   0.86898556802140825     
      gamma =   0.99996526737918356     
      rotation matrix: 
      nu1 =    1.00000000       0.00000000       0.00000000    
      nu2 =    0.00000000       1.00000000       0.00000000    
      nu3 =    0.00000000       0.00000000       1.00000000    
      UTM x:    595218.34698741033     
      UTM y:    3457739.8456677850     
      depth:    2.8421709430404007E-014  m
      z:    250.22149658203128     



 station #           28     IN    ST7
      original latitude:    31.3500004    
      original longitude:    76.0000000    
      original UTM x:    595117.812    
      original UTM y:    3468823.75    
      original depth:    0.00000000      m
      horizontal distance:    75.4553986    
      target x, y, z:    595117.812       3468823.75       281.363953    
      closest estimate found:    4.79992657E-10  m away

      receiver located in slice           41
                       in element       187112
                       in elastic domain
      at coordinates: 
      xi    =  -0.89277605617979172     
      eta   =   -2.3072373035005096E-003
      gamma =   0.99964826255296457     
      rotation matrix: 
      nu1 =    1.00000000       0.00000000       0.00000000    
      nu2 =    0.00000000       1.00000000       0.00000000    
      nu3 =    0.00000000       0.00000000       1.00000000    
      UTM x:    595117.83622969873     
      UTM y:    3468823.6570400125     
      depth:    0.0000000000000000       m
      z:    281.36395263671875     



 station #           29     IN    ST8
      original latitude:    31.4500008    
      original longitude:    76.0000000    
      original UTM x:    595017.062    
      original UTM y:    3479907.75    
      original depth:    0.00000000      m
      horizontal distance:    64.8801193    
      target x, y, z:    595017.062       3479907.75       315.126434    
      closest estimate found:    4.79992657E-10  m away

      receiver located in slice           41
                       in element       189047
                       in elastic domain
      at coordinates: 
      xi    =   0.62730821473674503     
      eta   =  -0.87301135954266706     
      gamma =    1.0006271993180824     
      rotation matrix: 
      nu1 =    1.00000000       0.00000000       0.00000000    
      nu2 =    0.00000000       1.00000000       0.00000000    
      nu3 =    0.00000000       0.00000000       1.00000000    
      UTM x:    595017.03557847650     
      UTM y:    3479907.6360805980     
      depth:    5.6843418860808015E-014  m
      z:    315.12643432617193     



 station #           30     IN    ST9
      original latitude:    31.5499992    
      original longitude:    76.0000000    
      original UTM x:    594915.938    
      original UTM y:    3490991.75    
      original depth:    0.00000000      m
      horizontal distance:    54.5074921    
      target x, y, z:    594915.938       3490991.75       363.207672    
      closest estimate found:    4.65661287E-10  m away

      receiver located in slice           51
                       in element       183151
                       in elastic domain
      at coordinates: 
      xi    =   0.14599769937284396     
      eta   =   0.25791087548940622     
      gamma =    1.0013713859662636     
      rotation matrix: 
      nu1 =    1.00000000       0.00000000       0.00000000    
      nu2 =    0.00000000       1.00000000       0.00000000    
      nu3 =    0.00000000       0.00000000       1.00000000    
      UTM x:    594915.94532929640     
      UTM y:    3490991.7830950012     
      depth:    5.6843418860808015E-014  m
      z:    363.20767211914068     



 station #           31     IN    ST10
      original latitude:    31.6499996    
      original longitude:    76.0000000    
      original UTM x:    594814.562    
      original UTM y:    3502076.00    
      original depth:    0.00000000      m
      horizontal distance:    44.4796524    
      target x, y, z:    594814.562       3502076.00       524.277649    
      closest estimate found:    4.79992657E-10  m away

      receiver located in slice           51
                       in element       185087
                       in elastic domain
      at coordinates: 
      xi    =  -0.33669023729493147     
      eta   =  -0.61148487678634711     
      gamma =   0.99765180085352279     
      rotation matrix: 
      nu1 =    1.00000000       0.00000000       0.00000000    
      nu2 =    0.00000000       1.00000000       0.00000000    
      nu3 =    0.00000000       0.00000000       1.00000000    
      UTM x:    594814.56577859819     
      UTM y:    3502076.0983866658     
      depth:    1.1368683772161603E-013  m
      z:    524.27764892578114     



 station #           32     IN    ST11
      original latitude:    31.7500000    
      original longitude:    76.0000000    
      original UTM x:    594712.875    
      original UTM y:    3513160.50    
      original depth:    0.00000000      m
      horizontal distance:    35.0935783    
      target x, y, z:    594712.875       3513160.50       547.778564    
      closest estimate found:    4.79992657E-10  m away

      receiver located in slice           51
                       in element       186935
                       in elastic domain
      at coordinates: 
      xi    =  -0.82075417964670982     
      eta   =   0.51977531908851726     
      gamma =    1.0002649539081641     
      rotation matrix: 
      nu1 =    1.00000000       0.00000000       0.00000000    
      nu2 =    0.00000000       1.00000000       0.00000000    
      nu3 =    0.00000000       0.00000000       1.00000000    
      UTM x:    594712.89722370612     
      UTM y:    3513160.5822570063     
      depth:    1.1368683772161603E-013  m
      z:    547.77856445312511     



 station #           33     IN    ST12
      original latitude:    31.8500004    
      original longitude:    76.0000000    
      original UTM x:    594610.938    
      original UTM y:    3524245.25    
      original depth:    0.00000000      m
      horizontal distance:    27.0266056    
      target x, y, z:    594610.938       3524245.25       621.551697    
      closest estimate found:    4.65661287E-10  m away

      receiver located in slice           51
                       in element       188870
                       in elastic domain
      at coordinates: 
      xi    =   0.69385284298744077     
      eta   =  -0.34733460931951315     
      gamma =    1.0041248130765892     
      rotation matrix: 
      nu1 =    1.00000000       0.00000000       0.00000000    
      nu2 =    0.00000000       1.00000000       0.00000000    
      nu3 =    0.00000000       0.00000000       1.00000000    
      UTM x:    594610.93996283005     
      UTM y:    3524245.2350054048     
      depth:    0.0000000000000000       m
      z:    621.55169677734375     



 station #           34     IN    ST13
      original latitude:    31.9500008    
      original longitude:    76.0000000    
      original UTM x:    594508.688    
      original UTM y:    3535330.00    
      original depth:    0.00000000      m
      horizontal distance:    21.7964554    
      target x, y, z:    594508.688       3535330.00       417.033325    
      closest estimate found:    0.00000000      m away

      receiver located in slice           61
                       in element       182974
                       in elastic domain
      at coordinates: 
      xi    =   0.20711357364743027     
      eta   =   0.78524096969815727     
      gamma =   0.99946552459577842     
      rotation matrix: 
      nu1 =    1.00000000       0.00000000       0.00000000    
      nu2 =    0.00000000       1.00000000       0.00000000    
      nu3 =    0.00000000       0.00000000       1.00000000    
      UTM x:    594508.69429506431     
      UTM y:    3535330.0569292125     
      depth:    0.0000000000000000       m
      z:    417.03332519531250     



 station #           35     IN    ST14
      original latitude:    32.0499992    
      original longitude:    76.0000000    
      original UTM x:    594406.188    
      original UTM y:    3546415.00    
      original depth:    0.00000000      m
      horizontal distance:    21.5757904    
      target x, y, z:    594406.188       3546415.00       407.292236    
      closest estimate found:    1.16415322E-10  m away

      receiver located in slice           61
                       in element       184910
                       in elastic domain
      at coordinates: 
      xi    =  -0.28099722517512982     
      eta   =   -8.1524032131852109E-002
      gamma =   0.99988957949499102     
      rotation matrix: 
      nu1 =    1.00000000       0.00000000       0.00000000    
      nu2 =    0.00000000       1.00000000       0.00000000    
      nu3 =    0.00000000       0.00000000       1.00000000    
      UTM x:    594406.16052038677     
      UTM y:    3546415.0483237421     
      depth:    0.0000000000000000       m
      z:    407.29223632812500     



 station #           36     IN    ST15
      original latitude:    32.1500015    
      original longitude:    76.0000000    
      original UTM x:    594303.312    
      original UTM y:    3557500.25    
      original depth:    0.00000000      m
      horizontal distance:    26.4903145    
      target x, y, z:    594303.312       3557500.25       501.818329    
      closest estimate found:    9.59985313E-10  m away

      receiver located in slice           61
                       in element       186846
                       in elastic domain
      at coordinates: 
      xi    =  -0.77047812123417192     
      eta   =  -0.94665571103957280     
      gamma =    1.0011114945697401     
      rotation matrix: 
      nu1 =    1.00000000       0.00000000       0.00000000    
      nu2 =    0.00000000       1.00000000       0.00000000    
      nu3 =    0.00000000       0.00000000       1.00000000    
      UTM x:    594303.33893965837     
      UTM y:    3557500.2094822633     
      depth:    5.6843418860808015E-014  m
      z:    501.81832885742182     



 station #           37     IN    ST16
      original latitude:    32.2500000    
      original longitude:    76.0000000    
      original UTM x:    594200.250    
      original UTM y:    3568585.50    
      original depth:    0.00000000      m
      horizontal distance:    34.4058533    
      target x, y, z:    594200.250       3568585.50       672.352417    
      closest estimate found:    1.41625356E-09  m away

      receiver located in slice           61
                       in element       188693
                       in elastic domain
      at coordinates: 
      xi    =   0.73867232191670218     
      eta   =   0.18790154084953342     
      gamma =    1.0009431331329306     
      rotation matrix: 
      nu1 =    1.00000000       0.00000000       0.00000000    
      nu2 =    0.00000000       1.00000000       0.00000000    
      nu3 =    0.00000000       0.00000000       1.00000000    
      UTM x:    594200.22985462274     
      UTM y:    3568585.5406959988     
      depth:    2.2737367544323206E-013  m
      z:    672.35241699218773     



 station #           38     IN    ST17
      original latitude:    32.3499985    
      original longitude:    76.0000000    
      original UTM x:    594096.812    
      original UTM y:    3579671.00    
      original depth:    0.00000000      m
      horizontal distance:    43.7219009    
      target x, y, z:    594096.812       3579671.00       1163.52393    
      closest estimate found:    1.16415544E-10  m away

      receiver located in slice           61
                       in element       190629
                       in elastic domain
      at coordinates: 
      xi    =   0.24645554492285915     
      eta   =  -0.67687838862462180     
      gamma =   0.99285353323114434     
      rotation matrix: 
      nu1 =    1.00000000       0.00000000       0.00000000    
      nu2 =    0.00000000       1.00000000       0.00000000    
      nu3 =    0.00000000       0.00000000       1.00000000    
      UTM x:    594096.83356790524     
      UTM y:    3579671.0422541229     
      depth:    2.2737367544323206E-013  m
      z:    1163.5239257812502     



 station #           39     IN    ST18
      original latitude:    32.4500008    
      original longitude:    76.0000000    
      original UTM x:    593993.125    
      original UTM y:    3590756.75    
      original depth:    0.00000000      m
      horizontal distance:    53.7147408    
      target x, y, z:    593993.125       3590756.75       1306.69690    
      closest estimate found:    1.16415322E-10  m away

      receiver located in slice           71
                       in element       184733
                       in elastic domain
      at coordinates: 
      xi    =  -0.24712700737272922     
      eta   =   0.45997838038867650     
      gamma =   0.99284359635883623     
      rotation matrix: 
      nu1 =    1.00000000       0.00000000       0.00000000    
      nu2 =    0.00000000       1.00000000       0.00000000    
      nu3 =    0.00000000       0.00000000       1.00000000    
      UTM x:    593993.15038301377     
      UTM y:    3590756.7144437600     
      depth:    0.0000000000000000       m
      z:    1306.6968994140625     



 station #           40     IN    ST19
      original latitude:    32.5499992    
      original longitude:    76.0000000    
      original UTM x:    593889.188    
      original UTM y:    3601842.50    
      original depth:    0.00000000      m
      horizontal distance:    64.0685654    
      target x, y, z:    593889.188       3601842.50       1832.10059    
      closest estimate found:    9.59985536E-10  m away

      receiver located in slice           71
                       in element       186669
                       in elastic domain
      at coordinates: 
      xi    =  -0.74207388593688550     
      eta   =  -0.40347256818551258     
      gamma =   0.98994826854455953     
      rotation matrix: 
      nu1 =    1.00000000       0.00000000       0.00000000    
      nu2 =    0.00000000       1.00000000       0.00000000    
      nu3 =    0.00000000       0.00000000       1.00000000    
      UTM x:    593889.18060433550     
      UTM y:    3601842.5575499767     
      depth:    6.8212102632969618E-013  m
      z:    1832.1005859375007     



 station #           41     IN    ST20
      original latitude:    32.6500015    
      original longitude:    76.0000000    
      original UTM x:    593784.938    
      original UTM y:    3612928.50    
      original depth:    0.00000000      m
      horizontal distance:    74.6333618    
      target x, y, z:    593784.938       3612928.50       1145.69507    
      closest estimate found:    4.79992712E-10  m away

      receiver located in slice           71
                       in element       188516
                       in elastic domain
      at coordinates: 
      xi    =   0.76158089397599404     
      eta   =   0.73374262948190538     
      gamma =   0.99463190586015471     
      rotation matrix: 
      nu1 =    1.00000000       0.00000000       0.00000000    
      nu2 =    0.00000000       1.00000000       0.00000000    
      nu3 =    0.00000000       0.00000000       1.00000000    
      UTM x:    593784.92453713785     
      UTM y:    3612928.5718557769     
      depth:    2.2737367544323206E-013  m
      z:    1145.6950683593748     



 station #           42     IN    ST21
      original latitude:    32.7500000    
      original longitude:    76.0000000    
      original UTM x:    593680.375    
      original UTM y:    3624014.75    
      original depth:    0.00000000      m
      horizontal distance:    85.3308792    
      target x, y, z:    593680.375       3624014.75       1771.54431    
      closest estimate found:    0.00000000      m away

      receiver located in slice           71
                       in element       190452
                       in elastic domain
      at coordinates: 
      xi    =   0.26383567954405418     
      eta   =  -0.12740217078774316     
      gamma =    1.0013449091775246     
      rotation matrix: 
      nu1 =    1.00000000       0.00000000       0.00000000    
      nu2 =    0.00000000       1.00000000       0.00000000    
      nu3 =    0.00000000       0.00000000       1.00000000    
      UTM x:    593680.38248756924     
      UTM y:    3624014.7576421076     
      depth:    0.0000000000000000       m
      z:    1771.5443115234375     



 station #           43     IN    ST22
      original latitude:    30.7500000    
      original longitude:    76.0999985    
      original UTM x:    605288.750    
      original UTM y:    3402413.00    
      original depth:    0.00000000      m
      horizontal distance:    139.453186    
      target x, y, z:    605288.750       3402413.00       262.539917    
      closest estimate found:    0.00000000      m away

      receiver located in slice           31
                       in element       183528
                       in elastic domain
      at coordinates: 
      xi    =  -0.47165239809374909     
      eta   =  -0.41733843053683706     
      gamma =    1.0000680814755138     
      rotation matrix: 
      nu1 =    1.00000000       0.00000000       0.00000000    
      nu2 =    0.00000000       1.00000000       0.00000000    
      nu3 =    0.00000000       0.00000000       1.00000000    
      UTM x:    605288.73601812543     
      UTM y:    3402412.9940233524     
      depth:    0.0000000000000000       m
      z:    262.53991699218750     



 station #           44     IN    ST23
      original latitude:    30.8500004    
      original longitude:    76.0999985    
      original UTM x:    605179.750    
      original UTM y:    3413496.25    
      original depth:    0.00000000      m
      horizontal distance:    128.410446    
      target x, y, z:    605179.750       3413496.25       261.135101    
      closest estimate found:    0.00000000      m away

      receiver located in slice           31
                       in element       185375
                       in elastic domain
      at coordinates: 
      xi    =    1.0096148632550197     
      eta   =   0.70872211240025895     
      gamma =    1.0000138859540180     
      rotation matrix: 
      nu1 =    1.00000000       0.00000000       0.00000000    
      nu2 =    0.00000000       1.00000000       0.00000000    
      nu3 =    0.00000000       0.00000000       1.00000000    
      UTM x:    605179.76942174789     
      UTM y:    3413496.1415828862     
      depth:    0.0000000000000000       m
      z:    261.13510131835938     



 station #           45     IN    ST24
      original latitude:    30.9500008    
      original longitude:    76.0999985    
      original UTM x:    605070.500    
      original UTM y:    3424579.50    
      original depth:    0.00000000      m
      horizontal distance:    117.375305    
      target x, y, z:    605070.500       3424579.50       248.000000    
      closest estimate found:    4.79992657E-10  m away

      receiver located in slice           31
                       in element       187311
                       in elastic domain
      at coordinates: 
      xi    =   0.48927757509709419     
      eta   =  -0.16416871805296909     
      gamma =   0.99999999999999978     
      rotation matrix: 
      nu1 =    1.00000000       0.00000000       0.00000000    
      nu2 =    0.00000000       1.00000000       0.00000000    
      nu3 =    0.00000000       0.00000000       1.00000000    
      UTM x:    605070.48233069456     
      UTM y:    3424579.4541605501     
      depth:    5.6843418860808015E-014  m
      z:    247.99999999999994     



 station #           46     IN    ST25
      original latitude:    31.0499992    
      original longitude:    76.0999985    
      original UTM x:    604960.875    
      original UTM y:    3435663.00    
      original depth:    0.00000000      m
      horizontal distance:    106.350151    
      target x, y, z:    604960.875       3435663.00       257.057190    
      closest estimate found:    0.00000000      m away

      receiver located in slice           31
                       in element       189159
                       in elastic domain
      at coordinates: 
      xi    =   -3.2584125997232302E-002
      eta   =   0.96374346225808738     
      gamma =   0.99993827489771037     
      rotation matrix: 
      nu1 =    1.00000000       0.00000000       0.00000000    
      nu2 =    0.00000000       1.00000000       0.00000000    
      nu3 =    0.00000000       0.00000000       1.00000000    
      UTM x:    604960.87506528664     
      UTM y:    3435662.9320698003     
      depth:    0.0000000000000000       m
      z:    257.05718994140625     



 station #           47     IN    ST26
      original latitude:    31.1499996    
      original longitude:    76.0999985    
      original UTM x:    604850.938    
      original UTM y:    3446746.50    
      original depth:    0.00000000      m
      horizontal distance:    95.3385162    
      target x, y, z:    604850.938       3446746.50       253.971222    
      closest estimate found:    0.00000000      m away

      receiver located in slice           41
                       in element       183351
                       in elastic domain
      at coordinates: 
      xi    =  -0.55596871026356220     
      eta   =    9.1733938113855135E-002
      gamma =   0.99985437470313443     
      rotation matrix: 
      nu1 =    1.00000000       0.00000000       0.00000000    
      nu2 =    0.00000000       1.00000000       0.00000000    
      nu3 =    0.00000000       0.00000000       1.00000000    
      UTM x:    604850.94794682250     
      UTM y:    3446746.5756220953     
      depth:    0.0000000000000000       m
      z:    253.97122192382812     



 station #           48     IN    ST27
      original latitude:    31.2500000    
      original longitude:    76.0999985    
      original UTM x:    604740.688    
      original UTM y:    3457830.50    
      original depth:    0.00000000      m
      horizontal distance:    84.3457718    
      target x, y, z:    604740.688       3457830.50       264.576904    
      closest estimate found:    4.79992657E-10  m away

      receiver located in slice           41
                       in element       185286
                       in elastic domain
      at coordinates: 
      xi    =   0.91913738805436018     
      eta   =  -0.77865709374883307     
      gamma =   0.99979795261112747     
      rotation matrix: 
      nu1 =    1.00000000       0.00000000       0.00000000    
      nu2 =    0.00000000       1.00000000       0.00000000    
      nu3 =    0.00000000       0.00000000       1.00000000    
      UTM x:    604740.70129757817     
      UTM y:    3457830.3851269069     
      depth:    5.6843418860808015E-014  m
      z:    264.57690429687494     



 station #           49     IN    ST28
      original latitude:    31.3500004    
      original longitude:    76.0999985    
      original UTM x:    604630.125    
      original UTM y:    3468914.25    
      original depth:    0.00000000      m
      horizontal distance:    73.3804779    
      target x, y, z:    604630.125       3468914.25       327.301025    
      closest estimate found:    9.38570333E-10  m away

      receiver located in slice           41
                       in element       187134
                       in elastic domain
      at coordinates: 
      xi    =   0.39278995920813226     
      eta   =   0.35062603775835327     
      gamma =   0.99968045642922754     
      rotation matrix: 
      nu1 =    1.00000000       0.00000000       0.00000000    
      nu2 =    0.00000000       1.00000000       0.00000000    
      nu3 =    0.00000000       0.00000000       1.00000000    
      UTM x:    604630.13544080604     
      UTM y:    3468914.3608917035     
      depth:    0.0000000000000000       m
      z:    327.30102539062500     



 station #           50     IN    ST29
      original latitude:    31.4500008    
      original longitude:    76.0999985    
      original UTM x:    604519.250    
      original UTM y:    3479998.50    
      original depth:    0.00000000      m
      horizontal distance:    62.4571877    
      target x, y, z:    604519.250       3479998.50       436.087769    
      closest estimate found:    4.65661287E-10  m away

      receiver located in slice           41
                       in element       189070
                       in elastic domain
      at coordinates: 
      xi    =  -0.13507550973883078     
      eta   =  -0.51944271611292869     
      gamma =   0.99373157859627959     
      rotation matrix: 
      nu1 =    1.00000000       0.00000000       0.00000000    
      nu2 =    0.00000000       1.00000000       0.00000000    
      nu3 =    0.00000000       0.00000000       1.00000000    
      UTM x:    604519.25070073549     
      UTM y:    3479998.5032219593     
      depth:    0.0000000000000000       m
      z:    436.08776855468750     



 station #           51     IN    ST30
      original latitude:    31.5499992    
      original longitude:    76.0999985    
      original UTM x:    604408.062    
      original UTM y:    3491082.75    
      original depth:    0.00000000      m
      horizontal distance:    51.6026802    
      target x, y, z:    604408.062       3491082.75       492.519104    
      closest estimate found:    0.00000000      m away

      receiver located in slice           51
                       in element       183174
                       in elastic domain
      at coordinates: 
      xi    =  -0.66445747065743577     
      eta   =   0.61211058806497098     
      gamma =   0.99925940002155056     
      rotation matrix: 
      nu1 =    1.00000000       0.00000000       0.00000000    
      nu2 =    0.00000000       1.00000000       0.00000000    
      nu3 =    0.00000000       0.00000000       1.00000000    
      UTM x:    604408.04740257002     
      UTM y:    3491082.8124211323     
      depth:    0.0000000000000000       m
      z:    492.51910400390625     



 station #           52     IN    ST31
      original latitude:    31.6499996    
      original longitude:    76.0999985    
      original UTM x:    604296.500    
      original UTM y:    3502167.25    
      original depth:    0.00000000      m
      horizontal distance:    40.8719368    
      target x, y, z:    604296.500       3502167.25       444.498413    
      closest estimate found:    9.31322575E-10  m away

      receiver located in slice           51
                       in element       185109
                       in elastic domain
      at coordinates: 
      xi    =   0.80464562922284388     
      eta   =  -0.25665840202696077     
      gamma =   0.99992818889286972     
      rotation matrix: 
      nu1 =    1.00000000       0.00000000       0.00000000    
      nu2 =    0.00000000       1.00000000       0.00000000    
      nu3 =    0.00000000       0.00000000       1.00000000    
      UTM x:    604296.52587248874     
      UTM y:    3502167.2887906795     
      depth:    0.0000000000000000       m
      z:    444.49841308593750     



 station #           53     IN    ST32
      original latitude:    31.7500000    
      original longitude:    76.0999985    
      original UTM x:    604184.688    
      original UTM y:    3513252.00    
      original depth:    0.00000000      m
      horizontal distance:    30.3965130    
      target x, y, z:    604184.688       3513252.00       664.365295    
      closest estimate found:    0.00000000      m away

      receiver located in slice           51
                       in element       186957
                       in elastic domain
      at coordinates: 
      xi    =   0.27223534730995419     
      eta   =   0.87522424139618760     
      gamma =   0.99953442556920780     
      rotation matrix: 
      nu1 =    1.00000000       0.00000000       0.00000000    
      nu2 =    0.00000000       1.00000000       0.00000000    
      nu3 =    0.00000000       0.00000000       1.00000000    
      UTM x:    604184.68643764430     
      UTM y:    3513251.9326300388     
      depth:    0.0000000000000000       m
      z:    664.36529541015625     



 station #           54     IN    ST33
      original latitude:    31.8500004    
      original longitude:    76.0999985    
      original UTM x:    604072.500    
      original UTM y:    3524336.75    
      original depth:    0.00000000      m
      horizontal distance:    20.5705090    
      target x, y, z:    604072.500       3524336.75       807.321350    
      closest estimate found:    0.00000000      m away

      receiver located in slice           51
                       in element       188893
                       in elastic domain
      at coordinates: 
      xi    =  -0.26168675435448163     
      eta   =    8.7324382650307199E-003
      gamma =   0.99810868296572286     
      rotation matrix: 
      nu1 =    1.00000000       0.00000000       0.00000000    
      nu2 =    0.00000000       1.00000000       0.00000000    
      nu3 =    0.00000000       0.00000000       1.00000000    
      UTM x:    604072.52942616341     
      UTM y:    3524336.7442366341     
      depth:    0.0000000000000000       m
      z:    807.32135009765625     



 station #           55     IN    ST34
      original latitude:    31.9500008    
      original longitude:    76.0999985    
      original UTM x:    603960.062    
      original UTM y:    3535421.75    
      original depth:    0.00000000      m
      horizontal distance:    12.9661121    
      target x, y, z:    603960.062       3535421.75       406.740997    
      closest estimate found:    0.00000000      m away

      receiver located in slice           61
                       in element       183085
                       in elastic domain
      at coordinates: 
      xi    =  -0.79711910909806050     
      eta   =  -0.85807818728638807     
      gamma =   0.99996864473134073     
      rotation matrix: 
      nu1 =    1.00000000       0.00000000       0.00000000    
      nu2 =    0.00000000       1.00000000       0.00000000    
      nu3 =    0.00000000       0.00000000       1.00000000    
      UTM x:    603960.05516714498     
      UTM y:    3535421.7239058674     
      depth:    0.0000000000000000       m
      z:    406.74099731445312     



 station #           56     IN    ST35
      original latitude:    32.0499992    
      original longitude:    76.0999985    
      original UTM x:    603847.250    
      original UTM y:    3546506.75    
      original depth:    0.00000000      m
      horizontal distance:    12.6048479    
      target x, y, z:    603847.250       3546506.75       487.643066    
      closest estimate found:    1.16415336E-10  m away

      receiver located in slice           61
                       in element       184932
                       in elastic domain
      at coordinates: 
      xi    =   0.66589015044415589     
      eta   =   0.27576626894510076     
      gamma =    1.0022975905629923     
      rotation matrix: 
      nu1 =    1.00000000       0.00000000       0.00000000    
      nu2 =    0.00000000       1.00000000       0.00000000    
      nu3 =    0.00000000       0.00000000       1.00000000    
      UTM x:    603847.26399066043     
      UTM y:    3546506.8719311184     
      depth:    5.6843418860808015E-014  m
      z:    487.64306640625006     



 station #           57     IN    ST36
      original latitude:    32.1500015    
      original longitude:    76.0999985    
      original UTM x:    603734.125    
      original UTM y:    3557592.25    
      original depth:    0.00000000      m
      horizontal distance:    19.8857632    
      target x, y, z:    603734.125       3557592.25       589.138245    
      closest estimate found:    4.79992657E-10  m away

      receiver located in slice           61
                       in element       186868
                       in elastic domain
      at coordinates: 
      xi    =   0.12736189377525661     
      eta   =  -0.58876029675032526     
      gamma =   0.99757485525898459     
      rotation matrix: 
      nu1 =    1.00000000       0.00000000       0.00000000    
      nu2 =    0.00000000       1.00000000       0.00000000    
      nu3 =    0.00000000       0.00000000       1.00000000    
      UTM x:    603734.15622775210     
      UTM y:    3557592.1886037355     
      depth:    1.1368683772161603E-013  m
      z:    589.13824462890636     



 station #           58     IN    ST37
      original latitude:    32.2500000    
      original longitude:    76.0999985    
      original UTM x:    603620.750    
      original UTM y:    3568677.75    
      original depth:    0.00000000      m
      horizontal distance:    29.6279545    
      target x, y, z:    603620.750       3568677.75       805.013428    
      closest estimate found:   0.583004355      m away

      receiver located in slice           61
                       in element       188716
                       in elastic domain
      at coordinates: 
      xi    =  -0.41267211220345218     
      eta   =   0.54639771608911114     
      gamma =    1.0100000000000000     
      rotation matrix: 
      nu1 =    1.00000000       0.00000000       0.00000000    
      nu2 =    0.00000000       1.00000000       0.00000000    
      nu3 =    0.00000000       0.00000000       1.00000000    
      UTM x:    603620.73221043369     
      UTM y:    3568677.6742130350     
      depth:   0.58300438314290659       m
      z:    804.43042335123209     



 station #           59     IN    ST38
      original latitude:    32.3499985    
      original longitude:    76.0999985    
      original UTM x:    603507.000    
      original UTM y:    3579763.25    
      original depth:    0.00000000      m
      horizontal distance:    40.0750542    
      target x, y, z:    603507.000       3579763.25       1423.36499    
      closest estimate found:    5.44568226E-02  m away

      receiver located in slice           61
                       in element       190652
                       in elastic domain
      at coordinates: 
      xi    =  -0.95421028209429215     
      eta   =  -0.31778581206712164     
      gamma =    1.0100000000000000     
      rotation matrix: 
      nu1 =    1.00000000       0.00000000       0.00000000    
      nu2 =    0.00000000       1.00000000       0.00000000    
      nu3 =    0.00000000       0.00000000       1.00000000    
      UTM x:    603506.99227168888     
      UTM y:    3579763.3290462987     
      depth:    5.4456821425446833E-002  m
      z:    1423.3105334129496     



 station #           60     IN    ST39
      original latitude:    32.4500008    
      original longitude:    76.0999985    
      original UTM x:    603392.938    
      original UTM y:    3590849.25    
      original depth:    0.00000000      m
      horizontal distance:    50.7940750    
      target x, y, z:    603392.938       3590849.25       2255.78149    
      closest estimate found:    4.25640774      m away

      receiver located in slice           71
                       in element       184755
                       in elastic domain
      at coordinates: 
      xi    =   0.50282294779288972     
      eta   =   0.81966299132375153     
      gamma =    1.0100000000000000     
      rotation matrix: 
      nu1 =    1.00000000       0.00000000       0.00000000    
      nu2 =    0.00000000       1.00000000       0.00000000    
      nu3 =    0.00000000       0.00000000       1.00000000    
      UTM x:    603392.93674547062     
      UTM y:    3590849.1533887694     
      depth:    4.2564075916202455       m
      z:    2251.5250865490048     



 station #           61     IN    ST40
      original latitude:    32.5499992    
      original longitude:    76.0999985    
      original UTM x:    603278.562    
      original UTM y:    3601935.25    
      original depth:    0.00000000      m
      horizontal distance:    61.6434212    
      target x, y, z:    603278.562       3601935.25       1203.22266    
      closest estimate found:   0.462544203      m away

      receiver located in slice           71
                       in element       186691
                       in elastic domain
      at coordinates: 
      xi    =   -4.1637766374758557E-002
      eta   =   -4.3200297092707243E-002
      gamma =    1.0100000000000000     
      rotation matrix: 
      nu1 =    1.00000000       0.00000000       0.00000000    
      nu2 =    0.00000000       1.00000000       0.00000000    
      nu3 =    0.00000000       0.00000000       1.00000000    
      UTM x:    603278.56596670079     
      UTM y:    3601935.1475236462     
      depth:   0.46254419562546900       m
      z:    1202.7601120543745     



 station #           62     IN    ST41
      original latitude:    32.6500015    
      original longitude:    76.0999985    
      original UTM x:    603163.875    
      original UTM y:    3613021.25    
      original depth:    0.00000000      m
      horizontal distance:    72.5647354    
      target x, y, z:    603163.875       3613021.25       1629.12439    
      closest estimate found:    4.79992712E-10  m away

      receiver located in slice           71
                       in element       188627
                       in elastic domain
      at coordinates: 
      xi    =  -0.58759763751572769     
      eta   =  -0.90535578750028101     
      gamma =   0.98567058038939281     
      rotation matrix: 
      nu1 =    1.00000000       0.00000000       0.00000000    
      nu2 =    0.00000000       1.00000000       0.00000000    
      nu3 =    0.00000000       0.00000000       1.00000000    
      UTM x:    603163.88027126947     
      UTM y:    3613021.3117320864     
      depth:    2.2737367544323206E-013  m
      z:    1629.1243896484377     



 station #           63     IN    ST42
      original latitude:    32.7500000    
      original longitude:    76.0999985    
      original UTM x:    603048.875    
      original UTM y:    3624107.75    
      original depth:    0.00000000      m
      horizontal distance:    83.5298691    
      target x, y, z:    603048.875       3624107.75       1389.31934    
      closest estimate found:    4.79992657E-10  m away

      receiver located in slice           71
                       in element       190474
                       in elastic domain
      at coordinates: 
      xi    =   0.86494493797616534     
      eta   =   0.23403226922117620     
      gamma =    1.0041136840948088     
      rotation matrix: 
      nu1 =    1.00000000       0.00000000       0.00000000    
      nu2 =    0.00000000       1.00000000       0.00000000    
      nu3 =    0.00000000       0.00000000       1.00000000    
      UTM x:    603048.87999603350     
      UTM y:    3624107.6462931894     
      depth:    0.0000000000000000       m
      z:    1389.3193359375000     



 station #           64     IN    ST43
      original latitude:    30.7500000    
      original longitude:    76.1999969    
      original UTM x:    614861.062    
      original UTM y:    3402511.25    
      original depth:    0.00000000      m
      horizontal distance:    138.987961    
      target x, y, z:    614861.062       3402511.25       265.638672    
      closest estimate found:    4.79992657E-10  m away

      receiver located in slice           31
                       in element       183551
                       in elastic domain
      at coordinates: 
      xi    =  -0.89992671676159652     
      eta   =   -3.5051347385251223E-002
      gamma =   0.99996622342372821     
      rotation matrix: 
      nu1 =    1.00000000       0.00000000       0.00000000    
      nu2 =    0.00000000       1.00000000       0.00000000    
      nu3 =    0.00000000       0.00000000       1.00000000    
      UTM x:    614861.08414406027     
      UTM y:    3402511.2418037215     
      depth:    1.1368683772161603E-013  m
      z:    265.63867187499989     



 station #           65     IN    ST44
      original latitude:    30.8500004    
      original longitude:    76.1999969    
      original UTM x:    614742.188    
      original UTM y:    3413594.50    
      original depth:    0.00000000      m
      horizontal distance:    127.905289    
      target x, y, z:    614742.188       3413594.50       264.455627    
      closest estimate found:    4.79992657E-10  m away

      receiver located in slice           31
                       in element       185486
                       in elastic domain
      at coordinates: 
      xi    =   0.53408928689986024     
      eta   =  -0.90826686582048166     
      gamma =   0.99997856359298953     
      rotation matrix: 
      nu1 =    1.00000000       0.00000000       0.00000000    
      nu2 =    0.00000000       1.00000000       0.00000000    
      nu3 =    0.00000000       0.00000000       1.00000000    
      UTM x:    614742.20669053926     
      UTM y:    3413594.5754154846     
      depth:    1.1368683772161603E-013  m
      z:    264.45562744140636     



 station #           66     IN    ST45
      original latitude:    30.9500008    
      original longitude:    76.1999969    
      original UTM x:    614623.000    
      original UTM y:    3424678.00    
      original depth:    0.00000000      m
      horizontal distance:    116.822701    
      target x, y, z:    614623.000       3424678.00       251.999985    
      closest estimate found:    4.65661287E-10  m away

      receiver located in slice           31
                       in element       187334
                       in elastic domain
      at coordinates: 
      xi    =   -3.3574263977208071E-002
      eta   =   0.21974831537101103     
      gamma =   0.99999993608275706     
      rotation matrix: 
      nu1 =    1.00000000       0.00000000       0.00000000    
      nu2 =    0.00000000       1.00000000       0.00000000    
      nu3 =    0.00000000       0.00000000       1.00000000    
      UTM x:    614622.97960536904     
      UTM y:    3424678.0728485105     
      depth:    2.8421709430404007E-014  m
      z:    251.99998474121097     



 station #           67     IN    ST46
      original latitude:    31.0499992    
      original longitude:    76.1999969    
      original UTM x:    614503.375    
      original UTM y:    3435761.75    
      original depth:    0.00000000      m
      horizontal distance:    105.740288    
      target x, y, z:    614503.375       3435761.75       261.171539    
      closest estimate found:    1.16415336E-10  m away

      receiver located in slice           31
                       in element       189270
                       in elastic domain
      at coordinates: 
      xi    =  -0.60290081544639373     
      eta   =  -0.65181161869994819     
      gamma =   0.99964705935984033     
      rotation matrix: 
      nu1 =    1.00000000       0.00000000       0.00000000    
      nu2 =    0.00000000       1.00000000       0.00000000    
      nu3 =    0.00000000       0.00000000       1.00000000    
      UTM x:    614503.40323810582     
      UTM y:    3435761.7344139940     
      depth:    5.6843418860808015E-014  m
      z:    261.17153930664057     



 station #           68     IN    ST47
      original latitude:    31.1499996    
      original longitude:    76.1999969    
      original UTM x:    614383.500    
      original UTM y:    3446845.50    
      original depth:    0.00000000      m
      horizontal distance:    94.6581497    
      target x, y, z:    614383.500       3446845.50       265.581512    
      closest estimate found:    4.79992657E-10  m away

      receiver located in slice           41
                       in element       183373
                       in elastic domain
      at coordinates: 
      xi    =   0.82613717046602775     
      eta   =   0.47688879822209973     
      gamma =   0.99995323365615729     
      rotation matrix: 
      nu1 =    1.00000000       0.00000000       0.00000000    
      nu2 =    0.00000000       1.00000000       0.00000000    
      nu3 =    0.00000000       0.00000000       1.00000000    
      UTM x:    614383.47793937090     
      UTM y:    3446845.5604211432     
      depth:    5.6843418860808015E-014  m
      z:    265.58151245117182     



 station #           69     IN    ST48
      original latitude:    31.2500000    
      original longitude:    76.1999969    
      original UTM x:    614263.188    
      original UTM y:    3457929.50    
      original depth:    0.00000000      m
      horizontal distance:    83.5764694    
      target x, y, z:    614263.188       3457929.50       395.155762    
      closest estimate found:    1.40182610E-09  m away

      receiver located in slice           41
                       in element       185309
[...]
 Max norm displacement vector U in all slices (m) =    164.237244    
 Time steps done =        27400  out of        30000
 Time steps remaining =         2600
 Estimated remaining time in seconds =    6441.98047    
 Estimated remaining time in hh:mm:ss =      1 h 47 m 21 s
 Estimated total run time in seconds =    74330.5391    
 Estimated total run time in hh:mm:ss =     20 h 38 m 50 s
 We have done    91.3333359     % of that
 The run will finish approximately on (in local time): Wed Apr 16, 2025 10:39

 Time step #        27500
 Time:    115.347702      seconds
 Elapsed time in seconds =    68135.996446101999     
 Elapsed time in hh:mm:ss =     18 h 55 m 35 s
 Mean elapsed time per time step in seconds =    2.47767258    
 Max norm displacement vector U in all slices (m) =    164.238922    
 Time steps done =        27500  out of        30000
 Time steps remaining =         2500
 Estimated remaining time in seconds =    6194.18164    
 Estimated remaining time in hh:mm:ss =      1 h 43 m 14 s
 Estimated total run time in seconds =    74330.1797    
 Estimated total run time in hh:mm:ss =     20 h 38 m 50 s
 We have done    91.6666641     % of that
 The run will finish approximately on (in local time): Wed Apr 16, 2025 10:39

 Time step #        27600
 Time:    115.797699      seconds
 Elapsed time in seconds =    68382.839964988991     
 Elapsed time in hh:mm:ss =     18 h 59 m 42 s
 Mean elapsed time per time step in seconds =    2.47763920    
 Max norm displacement vector U in all slices (m) =    164.240646    
 Time steps done =        27600  out of        30000
 Time steps remaining =         2400
 Estimated remaining time in seconds =    5946.33398    
 Estimated remaining time in hh:mm:ss =      1 h 39 m 06 s
 Estimated total run time in seconds =    74329.1719    
 Estimated total run time in hh:mm:ss =     20 h 38 m 49 s
 We have done    92.0000000     % of that
 The run will finish approximately on (in local time): Wed Apr 16, 2025 10:39

 Time step #        27700
 Time:    116.247704      seconds
 Elapsed time in seconds =    68629.861557754994     
 Elapsed time in hh:mm:ss =     19 h 03 m 49 s
 Mean elapsed time per time step in seconds =    2.47761226    
 Max norm displacement vector U in all slices (m) =    164.241837    
 Time steps done =        27700  out of        30000
 Time steps remaining =         2300
 Estimated remaining time in seconds =    5698.50830    
 Estimated remaining time in hh:mm:ss =      1 h 34 m 58 s
 Estimated total run time in seconds =    74328.3672    
 Estimated total run time in hh:mm:ss =     20 h 38 m 48 s
 We have done    92.3333359     % of that
 The run will finish approximately on (in local time): Wed Apr 16, 2025 10:39

 Time step #        27800
 Time:    116.697701      seconds
 Elapsed time in seconds =    68875.997572195003     
 Elapsed time in hh:mm:ss =     19 h 07 m 55 s
 Mean elapsed time per time step in seconds =    2.47755384    
 Max norm displacement vector U in all slices (m) =    164.242783    
 Time steps done =        27800  out of        30000
 Time steps remaining =         2200
 Estimated remaining time in seconds =    5450.61865    
 Estimated remaining time in hh:mm:ss =      1 h 30 m 50 s
 Estimated total run time in seconds =    74326.6172    
 Estimated total run time in hh:mm:ss =     20 h 38 m 46 s
 We have done    92.6666641     % of that
 The run will finish approximately on (in local time): Wed Apr 16, 2025 10:39

 Time step #        27900
 Time:    117.147697      seconds
 Elapsed time in seconds =    69122.851698931991     
 Elapsed time in hh:mm:ss =     19 h 12 m 02 s
 Mean elapsed time per time step in seconds =    2.47752166    
 Max norm displacement vector U in all slices (m) =    164.243500    
 Time steps done =        27900  out of        30000
 Time steps remaining =         2100
 Estimated remaining time in seconds =    5202.79541    
 Estimated remaining time in hh:mm:ss =      1 h 26 m 42 s
 Estimated total run time in seconds =    74325.6484    
 Estimated total run time in hh:mm:ss =     20 h 38 m 45 s
 We have done    93.0000000     % of that
 The run will finish approximately on (in local time): Wed Apr 16, 2025 10:39

 Time step #        28000
 Time:    117.597702      seconds
 Elapsed time in seconds =    69370.807074401993     
 Elapsed time in hh:mm:ss =     19 h 16 m 10 s
 Mean elapsed time per time step in seconds =    2.47752881    
 Max norm displacement vector U in all slices (m) =    164.243683    
 Time steps done =        28000  out of        30000
 Time steps remaining =         2000
 Estimated remaining time in seconds =    4955.05762    
 Estimated remaining time in hh:mm:ss =      1 h 22 m 35 s
 Estimated total run time in seconds =    74325.8672    
 Estimated total run time in hh:mm:ss =     20 h 38 m 45 s
 We have done    93.3333359     % of that
 The run will finish approximately on (in local time): Wed Apr 16, 2025 10:39

 Time step #        28100
 Time:    118.047699      seconds
 Elapsed time in seconds =    69618.378634141991     
 Elapsed time in hh:mm:ss =     19 h 20 m 18 s
 Mean elapsed time per time step in seconds =    2.47752237    
 Max norm displacement vector U in all slices (m) =    164.243408    
 Time steps done =        28100  out of        30000
 Time steps remaining =         1900
 Estimated remaining time in seconds =    4707.29248    
 Estimated remaining time in hh:mm:ss =      1 h 18 m 27 s
 Estimated total run time in seconds =    74325.6719    
 Estimated total run time in hh:mm:ss =     20 h 38 m 45 s
 We have done    93.6666641     % of that
 The run will finish approximately on (in local time): Wed Apr 16, 2025 10:38

 Time step #        28200
 Time:    118.497704      seconds
 Elapsed time in seconds =    69866.208276047997     
 Elapsed time in hh:mm:ss =     19 h 24 m 26 s
 Mean elapsed time per time step in seconds =    2.47752523    
 Max norm displacement vector U in all slices (m) =    164.242950    
 Time steps done =        28200  out of        30000
 Time steps remaining =         1800
 Estimated remaining time in seconds =    4459.54541    
 Estimated remaining time in hh:mm:ss =      1 h 14 m 19 s
 Estimated total run time in seconds =    74325.7500    
 Estimated total run time in hh:mm:ss =     20 h 38 m 45 s
 We have done    94.0000000     % of that
 The run will finish approximately on (in local time): Wed Apr 16, 2025 10:39

 Time step #        28300
 Time:    118.947701      seconds
 Elapsed time in seconds =    70113.447158317998     
 Elapsed time in hh:mm:ss =     19 h 28 m 33 s
 Mean elapsed time per time step in seconds =    2.47750688    
 Max norm displacement vector U in all slices (m) =    164.242706    
 Time steps done =        28300  out of        30000
 Time steps remaining =         1700
 Estimated remaining time in seconds =    4211.76172    
 Estimated remaining time in hh:mm:ss =      1 h 10 m 11 s
 Estimated total run time in seconds =    74325.2109    
 Estimated total run time in hh:mm:ss =     20 h 38 m 45 s
 We have done    94.3333359     % of that
 The run will finish approximately on (in local time): Wed Apr 16, 2025 10:39

 Time step #        28400
 Time:    119.397697      seconds
 Elapsed time in seconds =    70361.026691573992     
 Elapsed time in hh:mm:ss =     19 h 32 m 41 s
 Mean elapsed time per time step in seconds =    2.47750092    
 Max norm displacement vector U in all slices (m) =    164.242508    
 Time steps done =        28400  out of        30000
 Time steps remaining =         1600
 Estimated remaining time in seconds =    3964.00146    
 Estimated remaining time in hh:mm:ss =      1 h 06 m 04 s
 Estimated total run time in seconds =    74325.0312    
 Estimated total run time in hh:mm:ss =     20 h 38 m 45 s
 We have done    94.6666641     % of that
 The run will finish approximately on (in local time): Wed Apr 16, 2025 10:39

 Time step #        28500
 Time:    119.847702      seconds
 Elapsed time in seconds =    70608.672771915997     
 Elapsed time in hh:mm:ss =     19 h 36 m 48 s
 Mean elapsed time per time step in seconds =    2.47749734    
 Max norm displacement vector U in all slices (m) =    164.242188    
 Time steps done =        28500  out of        30000
 Time steps remaining =         1500
 Estimated remaining time in seconds =    3716.24585    
 Estimated remaining time in hh:mm:ss =      1 h 01 m 56 s
 Estimated total run time in seconds =    74324.9219    
 Estimated total run time in hh:mm:ss =     20 h 38 m 44 s
 We have done    95.0000000     % of that
 The run will finish approximately on (in local time): Wed Apr 16, 2025 10:39

 Time step #        28600
 Time:    120.297699      seconds
 Elapsed time in seconds =    70855.815674361991     
 Elapsed time in hh:mm:ss =     19 h 40 m 55 s
 Mean elapsed time per time step in seconds =    2.47747612    
 Max norm displacement vector U in all slices (m) =    164.242355    
 Time steps done =        28600  out of        30000
 Time steps remaining =         1400
 Estimated remaining time in seconds =    3468.46655    
 Estimated remaining time in hh:mm:ss =      0 h 57 m 48 s
 Estimated total run time in seconds =    74324.2812    
 Estimated total run time in hh:mm:ss =     20 h 38 m 44 s
 We have done    95.3333359     % of that
 The run will finish approximately on (in local time): Wed Apr 16, 2025 10:39

 Time step #        28700
 Time:    120.747704      seconds
 Elapsed time in seconds =    71103.898675553995     
 Elapsed time in hh:mm:ss =     19 h 45 m 03 s
 Mean elapsed time per time step in seconds =    2.47748780    
 Max norm displacement vector U in all slices (m) =    164.242966    
 Time steps done =        28700  out of        30000
 Time steps remaining =         1300
 Estimated remaining time in seconds =    3220.73413    
 Estimated remaining time in hh:mm:ss =      0 h 53 m 40 s
 Estimated total run time in seconds =    74324.6328    
 Estimated total run time in hh:mm:ss =     20 h 38 m 44 s
 We have done    95.6666641     % of that
 The run will finish approximately on (in local time): Wed Apr 16, 2025 10:39

 Time step #        28800
 Time:    121.197701      seconds
 Elapsed time in seconds =    71350.711856531998     
 Elapsed time in hh:mm:ss =     19 h 49 m 10 s
 Mean elapsed time per time step in seconds =    2.47745538    
 Max norm displacement vector U in all slices (m) =    164.243317    
 Time steps done =        28800  out of        30000
 Time steps remaining =         1200
 Estimated remaining time in seconds =    2972.94629    
 Estimated remaining time in hh:mm:ss =      0 h 49 m 32 s
 Estimated total run time in seconds =    74323.6562    
 Estimated total run time in hh:mm:ss =     20 h 38 m 43 s
 We have done    96.0000000     % of that
 The run will finish approximately on (in local time): Wed Apr 16, 2025 10:39

 Time step #        28900
 Time:    121.647697      seconds
 Elapsed time in seconds =    71598.908086943993     
 Elapsed time in hh:mm:ss =     19 h 53 m 18 s
 Mean elapsed time per time step in seconds =    2.47747087    
 Max norm displacement vector U in all slices (m) =    164.243698    
 Time steps done =        28900  out of        30000
 Time steps remaining =         1100
 Estimated remaining time in seconds =    2725.21802    
 Estimated remaining time in hh:mm:ss =      0 h 45 m 25 s
 Estimated total run time in seconds =    74324.1250    
 Estimated total run time in hh:mm:ss =     20 h 38 m 44 s
 We have done    96.3333359     % of that
 The run will finish approximately on (in local time): Wed Apr 16, 2025 10:38

 Time step #        29000
 Time:    122.097702      seconds
 Elapsed time in seconds =    71847.480002418000     
 Elapsed time in hh:mm:ss =     19 h 57 m 27 s
 Mean elapsed time per time step in seconds =    2.47749925    
 Max norm displacement vector U in all slices (m) =    164.244232    
 Time steps done =        29000  out of        30000
 Time steps remaining =         1000
 Estimated remaining time in seconds =    2477.49927    
 Estimated remaining time in hh:mm:ss =      0 h 41 m 17 s
 Estimated total run time in seconds =    74324.9766    
 Estimated total run time in hh:mm:ss =     20 h 38 m 44 s
 We have done    96.6666641     % of that
 The run will finish approximately on (in local time): Wed Apr 16, 2025 10:39

 Time step #        29100
 Time:    122.547699      seconds
 Elapsed time in seconds =    72095.774330218992     
 Elapsed time in hh:mm:ss =     20 h 01 m 35 s
 Mean elapsed time per time step in seconds =    2.47751808    
 Max norm displacement vector U in all slices (m) =    164.244873    
 Time steps done =        29100  out of        30000
 Time steps remaining =          900
 Estimated remaining time in seconds =    2229.76611    
 Estimated remaining time in hh:mm:ss =      0 h 37 m 09 s
 Estimated total run time in seconds =    74325.5391    
 Estimated total run time in hh:mm:ss =     20 h 38 m 45 s
 We have done    97.0000000     % of that
 The run will finish approximately on (in local time): Wed Apr 16, 2025 10:39

 Time step #        29200
 Time:    122.997704      seconds
 Elapsed time in seconds =    72343.797426700999     
 Elapsed time in hh:mm:ss =     20 h 05 m 43 s
 Mean elapsed time per time step in seconds =    2.47752738    
 Max norm displacement vector U in all slices (m) =    164.245468    
 Time steps done =        29200  out of        30000
 Time steps remaining =          800
 Estimated remaining time in seconds =    1982.02185    
 Estimated remaining time in hh:mm:ss =      0 h 33 m 02 s
 Estimated total run time in seconds =    74325.8203    
 Estimated total run time in hh:mm:ss =     20 h 38 m 45 s
 We have done    97.3333359     % of that
 The run will finish approximately on (in local time): Wed Apr 16, 2025 10:39

 Time step #        29300
 Time:    123.447701      seconds
 Elapsed time in seconds =    72591.960574537996     
 Elapsed time in hh:mm:ss =     20 h 09 m 51 s
 Mean elapsed time per time step in seconds =    2.47754121    
 Max norm displacement vector U in all slices (m) =    164.246185    
 Time steps done =        29300  out of        30000
 Time steps remaining =          700
 Estimated remaining time in seconds =    1734.27893    
 Estimated remaining time in hh:mm:ss =      0 h 28 m 54 s
 Estimated total run time in seconds =    74326.2422    
 Estimated total run time in hh:mm:ss =     20 h 38 m 46 s
 We have done    97.6666641     % of that
 The run will finish approximately on (in local time): Wed Apr 16, 2025 10:39

 Time step #        29400
 Time:    123.897697      seconds
 Elapsed time in seconds =    72840.732619096991     
 Elapsed time in hh:mm:ss =     20 h 14 m 00 s
 Mean elapsed time per time step in seconds =    2.47757602    
 Max norm displacement vector U in all slices (m) =    164.246231    
 Time steps done =        29400  out of        30000
 Time steps remaining =          600
 Estimated remaining time in seconds =    1486.54553    
 Estimated remaining time in hh:mm:ss =      0 h 24 m 46 s
 Estimated total run time in seconds =    74327.2812    
 Estimated total run time in hh:mm:ss =     20 h 38 m 47 s
 We have done    98.0000000     % of that
 The run will finish approximately on (in local time): Wed Apr 16, 2025 10:39

 Time step #        29500
 Time:    124.347702      seconds
 Elapsed time in seconds =    73090.224899548004     
 Elapsed time in hh:mm:ss =     20 h 18 m 10 s
 Mean elapsed time per time step in seconds =    2.47763467    
 Max norm displacement vector U in all slices (m) =    164.246231    
 Time steps done =        29500  out of        30000
 Time steps remaining =          500
 Estimated remaining time in seconds =    1238.81738    
 Estimated remaining time in hh:mm:ss =      0 h 20 m 38 s
 Estimated total run time in seconds =    74329.0391    
 Estimated total run time in hh:mm:ss =     20 h 38 m 49 s
 We have done    98.3333359     % of that
 The run will finish approximately on (in local time): Wed Apr 16, 2025 10:39

 Time step #        29600
 Time:    124.797699      seconds
 Elapsed time in seconds =    73337.732981296998     
 Elapsed time in hh:mm:ss =     20 h 22 m 17 s
 Mean elapsed time per time step in seconds =    2.47762609    
 Max norm displacement vector U in all slices (m) =    164.246490    
 Time steps done =        29600  out of        30000
 Time steps remaining =          400
 Estimated remaining time in seconds =    991.050476    
 Estimated remaining time in hh:mm:ss =      0 h 16 m 31 s
 Estimated total run time in seconds =    74328.7812    
 Estimated total run time in hh:mm:ss =     20 h 38 m 48 s
 We have done    98.6666641     % of that
 The run will finish approximately on (in local time): Wed Apr 16, 2025 10:39

 Time step #        29700
 Time:    125.247704      seconds
 Elapsed time in seconds =    73584.632942907003     
 Elapsed time in hh:mm:ss =     20 h 26 m 24 s
 Mean elapsed time per time step in seconds =    2.47759700    
 Max norm displacement vector U in all slices (m) =    164.246796    
 Time steps done =        29700  out of        30000
 Time steps remaining =          300
 Estimated remaining time in seconds =    743.279114    
 Estimated remaining time in hh:mm:ss =      0 h 12 m 23 s
 Estimated total run time in seconds =    74327.9141    
 Estimated total run time in hh:mm:ss =     20 h 38 m 47 s
 We have done    99.0000000     % of that
 The run will finish approximately on (in local time): Wed Apr 16, 2025 10:39

 Time step #        29800
 Time:    125.697701      seconds
 Elapsed time in seconds =    73831.020194751996     
 Elapsed time in hh:mm:ss =     20 h 30 m 31 s
 Mean elapsed time per time step in seconds =    2.47755098    
 Max norm displacement vector U in all slices (m) =    164.247299    
 Time steps done =        29800  out of        30000
 Time steps remaining =          200
 Estimated remaining time in seconds =    495.510193    
 Estimated remaining time in hh:mm:ss =      0 h 08 m 15 s
 Estimated total run time in seconds =    74326.5312    
 Estimated total run time in hh:mm:ss =     20 h 38 m 46 s
 We have done    99.3333359     % of that
 The run will finish approximately on (in local time): Wed Apr 16, 2025 10:39

 Time step #        29900
 Time:    126.147697      seconds
 Elapsed time in seconds =    74078.317450723000     
 Elapsed time in hh:mm:ss =     20 h 34 m 38 s
 Mean elapsed time per time step in seconds =    2.47753572    
 Max norm displacement vector U in all slices (m) =    164.247955    
 Time steps done =        29900  out of        30000
 Time steps remaining =          100
 Estimated remaining time in seconds =    247.753571    
 Estimated remaining time in hh:mm:ss =      0 h 04 m 07 s
 Estimated total run time in seconds =    74326.0703    
 Estimated total run time in hh:mm:ss =     20 h 38 m 46 s
 We have done    99.6666641     % of that
 The run will finish approximately on (in local time): Wed Apr 16, 2025 10:39

 Time step #        30000
 Time:    126.597702      seconds
 Elapsed time in seconds =    74326.747373969003     
 Elapsed time in hh:mm:ss =     20 h 38 m 46 s
 Mean elapsed time per time step in seconds =    2.47755814    
 Max norm displacement vector U in all slices (m) =    164.248520    
 Time steps done =        30000  out of        30000
 Time steps remaining =            0
 Estimated remaining time in seconds =    0.00000000    
 Estimated remaining time in hh:mm:ss =      0 h 00 m 00 s
 Estimated total run time in seconds =    74326.7500    
 Estimated total run time in hh:mm:ss =     20 h 38 m 46 s
 We have done    100.000000     % of that

 Writing the seismograms
 Total number of time steps written:        30000
 Writing the seismograms in parallel took   0.439327657      seconds

 Time loop finished. Timing info:
 Total elapsed time in seconds =    74328.638141599993     
 Total elapsed time in hh:mm:ss =     20 h 38 m 48 s

 finalizing simulation

 End of the simulation

